[TITLE]


[JUNCTIONS]
;ID              	Elev        	Demand      	Pattern         
 A               	0           	0           	                	;
 E               	0           	0           	                	;
 K               	0           	0           	                	;
 F               	0           	0           	                	;
 B               	0           	8           	1               	;
 I               	0           	0           	                	;
 G               	0           	0           	                	;
 C               	0           	13          	1               	;
 J               	0           	0           	                	;
 H               	0           	0           	                	;
 D               	0           	10          	1               	;
 L               	0           	0           	                	;

[RESERVOIRS]
;ID              	Head        	Pattern         
 reservoirs1     	0           	                	;

[TANKS]
;ID              	Elevation   	InitLevel   	MinLevel    	MaxLevel    	Diameter    	MinVol      	VolCurve        	Overflow

[PIPES]
;ID              	Node1           	Node2           	Length      	Diameter    	Roughness   	MinorLoss   	Status
 AE              	A               	E               	1000        	500         	100         	0           	Open  	;
 EK              	E               	K               	1000        	500         	100         	0           	Open  	;
 KF              	K               	F               	1000        	500         	100         	0           	Open  	;
 FB              	F               	B               	1000        	500         	100         	0           	Open  	;
 EI              	E               	I               	1000        	500         	100         	0           	Open  	;
 IG              	I               	G               	1000        	500         	100         	0           	Open  	;
 FL              	F               	L               	1000        	500         	100         	0           	Open  	;
 LH              	L               	H               	1000        	500         	100         	0           	Open  	;
 GJ              	G               	J               	1000        	500         	100         	0           	Open  	;
 JH              	J               	H               	1000        	500         	100         	0           	Open  	;
 HD              	H               	D               	1000        	500         	100         	0           	Open  	;
 GC              	G               	C               	1000        	500         	100         	0           	Open  	;

[PUMPS]
;ID              	Node1           	Node2           	Parameters
 Pump1           	reservoirs1     	A               	HEAD 1	;

[VALVES]
;ID              	Node1           	Node2           	Diameter    	Type	Setting     	MinorLoss   

[TAGS]

[DEMANDS]
;Junction        	Demand      	Pattern         	Category

[STATUS]
;ID              	Status/Setting

[PATTERNS]
;ID              	Multipliers
;
 1               	0.74        	0.70        	0.65        	0.60        	0.59        	0.57        
 1               	0.57        	0.68        	0.86        	1.02        	1.16        	1.20        
 1               	1.23        	1.18        	0.93        	0.89        	0.89        	0.87        
 1               	1.16        	1.28        	1.34        	1.30        	1.17        	1.07        

[CURVES]
;ID              	X-Value     	Y-Value
;PUMP: PUMP: 
 1               	0           	120         
 1               	22.13       	110         
 1               	36.39       	82.74       

[CONTROLS]


[RULES]


[ENERGY]
 Global Efficiency  	100
 Global Price       	0
 Demand Charge      	0

[EMITTERS]
;Junction        	Coefficient

[QUALITY]
;Node            	InitQual

[SOURCES]
;Node            	Type        	Quality     	Pattern

[REACTIONS]
;Type     	Pipe/Tank       	Coefficient


[REACTIONS]
 Order Bulk            	1
 Order Tank            	1
 Order Wall            	1
 Global Bulk           	0
 Global Wall           	0
 Limiting Potential    	0
 Roughness Correlation 	0

[MIXING]
;Tank            	Model

[TIMES]
 Duration           	24:00 
 Hydraulic Timestep 	1:00 
 Quality Timestep   	0:05 
 Pattern Timestep   	1:00 
 Pattern Start      	0:00 
 Report Timestep    	1:00 
 Report Start       	0:00 
 Start ClockTime    	12 am
 Statistic          	NONE

[REPORT]
 Status             	No
 Summary            	No
 Page               	0

[OPTIONS]
 Units              	LPS
 Headloss           	H-W
 Specific Gravity   	1
 Viscosity          	1
 Trials             	40
 Accuracy           	0.001
 CHECKFREQ          	2
 MAXCHECK           	10
 DAMPLIMIT          	0
 Unbalanced         	Continue 10
 Pattern            	1
 Demand Multiplier  	1.0
 Emitter Exponent   	0.5
 Quality            	None mg/L
 Diffusivity        	1
 Tolerance          	0.01

[COORDINATES]
;Node            	X-Coord           	Y-Coord
A               	1990.847          	8209.382          
E               	3409.611          	8203.661          
K               	5509.153          	8203.661          
F               	6527.460          	8203.661          
B               	6533.181          	9107.551          
I               	3403.890          	6905.034          
G               	3398.169          	6516.018          
C               	3398.169          	5789.474          
J               	5572.082          	6516.018          
H               	6533.181          	6521.739          
D               	7780.320          	6521.739          
L               	6533.181          	7002.288          
reservoirs1     	617.284           	8216.735          

[VERTICES]
;Link            	X-Coord           	Y-Coord

[LABELS]
;X-Coord             Y-Coord             Label & Anchor Node

[BACKDROP]
  DIMENSIONS  	0.000             	0.000             	10000.000         	10000.000         
 UNITS          	None
 FILE           	
 OFFSET         	0.00            	0.00            

[END]
