[TITLE]
Test LPS Units

[JUNCTIONS]
;ID              Elev        Demand      Pattern         
 2               30.48       6.309       ;

[RESERVOIRS]
;ID              Head        Pattern         
 1               60.96       ;

[PIPES]
;ID              Node1           Node2           Length      Diameter    Roughness   MinorLoss   Status
 1               1               2               304.8       304.8       100         0           Open

[OPTIONS]
 Units              LPS
 Headloss           H-W
 Specific Gravity   1.0
 Viscosity          1.0
 Trials             40
 Accuracy           0.001
 CHECKFREQ          2
 MAXCHECK           10
 DAMPLIMIT          0
 Unbalanced         Continue 10
 Pattern            1
 Demand Multiplier  1.0
 Emitter Exponent   0.5
 Quality            None mg/L
 Diffusivity        1.0
 Tolerance          0.01

[COORDINATES]
;Node            X-Coord         Y-Coord
 1               1000            2000
 2               2000            2000

[END]
