[TITLE]
Exported by WaterDesk 3.1.0
Exported by WaterDesk 5.0.0

[JUNCTIONS]
;ID              	Elev        	Demand      	Pattern         
 0               	354         	0           	1               	;
 1               	352         	0           	1               	;
 2               	352         	0           	1               	;
 4               	350         	0           	1               	;
 7               	337         	0           	1               	;
 30              	368         	0           	1               	;
 32              	364         	0           	1               	;
 51              	367         	0           	1               	;
 71              	367         	0           	1               	;
 72              	368         	0           	1               	;
 73              	348         	0           	1               	;
 77              	354         	0           	1               	;
 78              	341         	0           	1               	;
 79              	354         	0           	1               	;
 81              	354         	0           	1               	;
 D               	363         	0.32958984375	1               	;
 112             	343         	0           	1               	;
 118             	348         	0           	1               	;
 119             	346         	0           	1               	;
 129             	345         	0           	1               	;
 140             	344         	0           	1               	;
 146             	355         	0           	1               	;
 148             	357         	0           	1               	;
 149             	349         	0           	1               	;
 158             	352         	0           	1               	;
 163             	365         	0           	1               	;
 170             	361         	0           	1               	;
 171             	363         	0           	1               	;
 172             	364         	0           	1               	;
 181             	357         	0           	1               	;
 188             	363         	0           	1               	;
 196             	349         	0           	1               	;
 206             	365         	0           	1               	;
 212             	368         	0           	1               	;
 221             	368         	0           	1               	;
 225             	368         	0           	1               	;
 227             	373         	0           	1               	;
 228             	359         	0           	1               	;
 233             	377         	0           	1               	;
 235             	371         	0           	1               	;
 237             	368         	0           	1               	;
 238             	367         	0           	1               	;
 239             	359         	0           	1               	;
 241             	359         	0           	1               	;
 244             	357         	0           	1               	;
 247             	359         	0           	1               	;
 250             	373         	0           	1               	;
 258             	362         	0           	1               	;
 289             	370         	0           	1               	;
 295             	357         	0           	1               	;
 300             	360         	0           	1               	;
 304             	368         	0           	1               	;
 308             	364         	0           	1               	;
 309             	367         	0           	1               	;
 310             	366         	0           	1               	;
 311             	364         	0           	1               	;
 313             	366         	0           	1               	;
 G               	373         	193.27697754	1               	;
 319             	377         	0           	1               	;
 320             	372         	0           	1               	;
 321             	370         	0           	1               	;
 324             	361         	0           	1               	;
 341             	365         	0           	1               	;
 345             	368         	0           	1               	;
 347             	372         	0           	1               	;
 348             	372         	0           	1               	;
 354             	364         	0           	1               	;
 360             	361         	0           	1               	;
 364             	360         	0           	1               	;
 371             	363         	0           	1               	;
 373             	364         	0           	1               	;
 374             	359         	0           	1               	;
 375             	357         	0           	1               	;
 376             	358         	0           	1               	;
 377             	357         	0           	1               	;
 378             	360         	0           	1               	;
 379             	366         	0           	1               	;
 380             	368         	0           	1               	;
 386             	372         	0           	1               	;
 388             	365         	0           	1               	;
 389             	361         	0           	1               	;
 395             	360         	0           	1               	;
 405             	360         	0           	1               	;
 411             	363         	0           	1               	;
 E               	366         	0           	1               	;
 417             	368         	0           	1               	;
 421             	364         	0           	1               	;
 436             	348.6       	0           	1               	;
 437             	348.6       	0           	1               	;
 467             	355.2       	0           	1               	;
 472             	370         	0           	1               	;
 491             	362         	0           	1               	;
 497             	367         	0           	1               	;
 500             	361         	0           	1               	;
 530             	358         	0           	1               	;
 538             	352         	0           	1               	;
 539             	352         	0           	1               	;
 556             	350         	0           	1               	;
 560             	350         	0           	1               	;
 563             	350         	0           	1               	;
 564             	350         	0           	1               	;
 566             	356         	0           	1               	;
 573             	346         	0           	1               	;
 584             	346         	0           	1               	;
 595             	347         	0           	1               	;
 605             	349         	0           	1               	;
 656             	355         	0           	1               	;
 662             	355         	0           	1               	;
 665             	364         	0           	1               	;
 C               	359         	871.27075195	1               	;
 687             	367         	0           	1               	;
 703             	370         	0           	1               	;
 708             	368         	0           	1               	;
 709             	366         	0           	1               	;
 F               	372         	0           	1               	;
 718             	365         	0           	1               	;
 726             	354         	0           	1               	;
 A               	346         	153.04298401	1               	;
 763             	349         	0           	1               	;
 766             	352         	0           	1               	;
 783             	358         	0           	1               	;
 786             	357         	0           	1               	;
 793             	359         	0           	1               	;
 794             	364         	0           	1               	;
 795             	367         	0           	1               	;
 806             	367         	0           	1               	;
 858             	348         	0           	1               	;
 1026            	338         	0           	1               	;
 1068            	352         	0           	1               	;
 1095            	366         	0           	1               	;
 1113            	365         	0           	1               	;
 1121            	364         	0           	1               	;
 B               	360         	633.37898254	1               	;
 1195            	370         	0           	1               	;
 1196            	370         	0           	1               	;
 1288            	351         	0           	1               	;
 1298            	366         	0           	1               	;
 1307            	372         	0           	1               	;
 1445            	370         	0           	1               	;
 1464            	364         	0           	1               	;
 1471            	364         	0           	1               	;
 1472            	356         	0           	1               	;
 1480            	360         	0           	1               	;
 1481            	360         	0           	1               	;
 J00145          	353         	0           	                	;
 J00147          	353         	0           	                	;

[RESERVOIRS]
;ID              	Head        	Pattern         
 R00001          	408         	                	;

[TANKS]
;ID              	Elevation   	InitLevel   	MinLevel    	MaxLevel    	Diameter    	MinVol      	VolCurve        	Overflow
 T00002          	377         	15          	0           	30          	5300        	0           	                	;

[PIPES]
;ID              	Node1           	Node2           	Length      	Diameter    	Roughness   	MinorLoss   	Status
 3               	0               	1               	450.584     	315         	110         	0           	Open  	;
 4               	1               	2               	42.5332     	315         	110         	0           	Open  	;
 5               	2               	4               	321.431     	315         	110         	0           	Open  	;
 9               	30              	32              	37.913      	315         	110         	0           	Open  	;
 14              	78              	81              	22.8643     	200         	110         	0           	Open  	;
 17              	79              	78              	66.0473     	315         	110         	0           	Open  	;
 18              	78              	77              	37.7336     	200         	110         	0           	Open  	;
 19              	112             	118             	335.106     	315         	110         	0           	Open  	;
 24              	584             	595             	1022.43     	315         	110         	0           	Open  	;
 25              	71              	72              	57.3007     	315         	110         	0           	Open  	;
 26              	149             	158             	386.486     	315         	110         	0           	Open  	;
 27              	149             	148             	100.551     	315         	110         	0           	Open  	;
 28              	148             	146             	202.954     	315         	110         	0           	Open  	;
 29              	146             	118             	81.3575     	315         	110         	0           	Open  	;
 30              	118             	140             	53.4441     	315         	110         	0           	Open  	;
 32              	188             	172             	42.0526     	315         	110         	0           	Open  	;
 37              	158             	163             	216.366     	315         	110         	0           	Open  	;
 38              	163             	170             	185.766     	315         	110         	0           	Open  	;
 39              	163             	206             	71.1573     	315         	110         	0           	Open  	;
 40              	206             	212             	636.322     	200         	110         	0           	Open  	;
 41              	212             	206             	600.132     	200         	110         	0           	Open  	;
 42              	212             	221             	35.1339     	200         	110         	0           	Open  	;
 43              	221             	225             	109.698     	315         	110         	0           	Open  	;
 44              	225             	227             	103.835     	315         	110         	0           	Open  	;
 45              	227             	228             	404.725     	315         	110         	0           	Open  	;
 46              	227             	233             	497.839     	315         	110         	0           	Open  	;
 47              	225             	235             	64.25       	315         	110         	0           	Open  	;
 48              	235             	237             	82.1621     	315         	110         	0           	Open  	;
 49              	237             	238             	34.822      	315         	110         	0           	Open  	;
 50              	238             	239             	151.307     	315         	110         	0           	Open  	;
 51              	239             	241             	118.176     	315         	110         	0           	Open  	;
 52              	241             	244             	230.721     	315         	110         	0           	Open  	;
 53              	244             	247             	105.814     	315         	110         	0           	Open  	;
 54              	247             	250             	306.006     	315         	110         	0           	Open  	;
 55              	250             	258             	331.904     	315         	110         	0           	Open  	;
 65              	G               	319             	476.627     	200         	110         	0           	Open  	;
 66              	319             	320             	320.37      	400         	110         	0           	Open  	;
 67              	320             	321             	66.9249     	400         	110         	0           	Open  	;
 68              	321             	324             	227.654     	400         	110         	0           	Open  	;
 69              	G               	313             	133.63      	315         	110         	0           	Open  	;
 70              	313             	311             	182.95      	315         	110         	0           	Open  	;
 71              	311             	310             	60.3805     	315         	110         	0           	Open  	;
 72              	310             	309             	55.7696     	315         	110         	0           	Open  	;
 73              	309             	308             	101.027     	315         	110         	0           	Open  	;
 74              	308             	304             	243.484     	315         	110         	0           	Open  	;
 75              	304             	300             	205.324     	315         	110         	0           	Open  	;
 76              	300             	295             	80.4472     	315         	110         	0           	Open  	;
 77              	1121            	795             	456.624     	400         	110         	0           	Open  	;
 78              	795             	806             	51.5576     	400         	110         	0           	Open  	;
 79              	806             	B               	496.379     	400         	110         	0           	Open  	;
 80              	B               	467             	1055.32     	400         	110         	0           	Open  	;
 85              	341             	345             	59.2031     	315         	110         	0           	Open  	;
 86              	360             	354             	53.6321     	315         	110         	0           	Open  	;
 88              	295             	289             	271.853     	315         	110         	0           	Open  	;
 89              	395             	389             	406.333     	315         	110         	0           	Open  	;
 90              	389             	388             	112.286     	315         	110         	0           	Open  	;
 91              	388             	386             	331.52      	315         	110         	0           	Open  	;
 92              	395             	405             	479.867     	315         	110         	0           	Open  	;
 93              	411             	E               	259.906     	315         	110         	0           	Open  	;
 94              	E               	417             	232.865     	315         	110         	0           	Open  	;
 95              	417             	421             	161.73      	315         	110         	0           	Open  	;
 96              	421             	436             	819.076     	315         	110         	0           	Open  	;
 97              	436             	437             	9.13141     	315         	110         	0           	Open  	;
 99              	250             	472             	81.5782     	315         	110         	0           	Open  	;
 101             	389             	491             	71.2272     	315         	110         	0           	Open  	;
 102             	500             	497             	236.445     	315         	110         	0           	Open  	;
 107             	170             	171             	229.509     	315         	110         	0           	Open  	;
 109             	D               	112             	302.362     	315         	110         	0           	Open  	;
 110             	71              	30              	344.392     	315         	110         	0           	Open  	;
 111             	30              	51              	25.4144     	315         	110         	0           	Open  	;
 112             	51              	D               	35.0128     	315         	110         	0           	Open  	;
 113             	530             	188             	67.7206     	315         	110         	0           	Open  	;
 114             	188             	148             	344.284     	315         	110         	0           	Open  	;
 115             	258             	341             	65.2839     	315         	110         	0           	Open  	;
 117             	140             	556             	834.357     	315         	110         	0           	Open  	;
 118             	556             	560             	75.0593     	315         	110         	0           	Open  	;
 119             	560             	73              	279.751     	315         	110         	0           	Open  	;
 120             	73              	563             	309.781     	315         	110         	0           	Open  	;
 121             	140             	0               	60.4539     	315         	110         	0           	Open  	;
 122             	0               	79              	439.146     	315         	110         	0           	Open  	;
 123             	79              	539             	220.533     	315         	110         	0           	Open  	;
 124             	539             	538             	50.6492     	315         	110         	0           	Open  	;
 125             	566             	379             	71.0307     	315         	110         	0           	Open  	;
 126             	566             	538             	123.104     	315         	110         	0           	Open  	;
 127             	538             	573             	79.9122     	315         	110         	0           	Open  	;
 128             	573             	119             	186.567     	315         	110         	0           	Open  	;
 129             	119             	129             	372.49      	315         	110         	0           	Open  	;
 130             	129             	584             	102.013     	315         	110         	0           	Open  	;
 131             	4               	7               	37.8958     	315         	110         	0           	Open  	;
 132             	560             	605             	636.479     	315         	110         	0           	Open  	;
 134             	563             	564             	70.0989     	315         	110         	0           	Open  	;
 135             	345             	347             	151.477     	315         	110         	0           	Open  	;
 136             	347             	348             	49.4537     	160         	110         	0           	Open  	;
 139             	360             	364             	130.259     	315         	110         	0           	Open  	;
 140             	364             	371             	470.025     	315         	110         	0           	Open  	;
 141             	371             	373             	49.829      	315         	110         	0           	Open  	;
 142             	373             	374             	167.927     	315         	110         	0           	Open  	;
 143             	374             	375             	77.899      	315         	110         	0           	Open  	;
 144             	375             	376             	114.122     	315         	110         	0           	Open  	;
 145             	376             	377             	30.9265     	315         	110         	0           	Open  	;
 146             	377             	378             	43.1567     	315         	110         	0           	Open  	;
 147             	378             	379             	43.3245     	315         	110         	0           	Open  	;
 148             	379             	380             	103.872     	315         	110         	0           	Open  	;
 149             	1298            	C               	134.845     	315         	110         	0           	Open  	;
 150             	C               	1288            	733.201     	315         	110         	0           	Open  	;
 151             	1288            	A               	519.571     	400         	110         	0           	Open  	;
 152             	1195            	A               	1933.61     	400         	110         	0           	Open  	;
 155             	687             	364             	171.408     	315         	110         	0           	Open  	;
 156             	687             	703             	441.599     	315         	110         	0           	Open  	;
 158             	703             	708             	32.8127     	315         	110         	0           	Open  	;
 159             	708             	709             	148.404     	315         	110         	0           	Open  	;
 160             	708             	F               	8.24709     	315         	110         	0           	Open  	;
 161             	F               	718             	109.479     	315         	110         	0           	Open  	;
 162             	718             	726             	484.932     	315         	110         	0           	Open  	;
 163             	763             	A               	199.505     	315         	110         	0           	Open  	;
 165             	656             	662             	185.75      	315         	110         	0           	Open  	;
 166             	662             	665             	123.146     	315         	110         	0           	Open  	;
 167             	665             	373             	203.432     	315         	110         	0           	Open  	;
 168             	436             	783             	324.334     	250         	110         	0           	Open  	;
 169             	783             	786             	59.6396     	250         	110         	0           	Open  	;
 170             	783             	793             	412.019     	250         	110         	0           	Open  	;
 171             	795             	794             	683.321     	150         	110         	0           	Open  	;
 174             	793             	794             	41.2613     	250         	110         	0           	Open  	;
 175             	763             	766             	63.9385     	315         	110         	0           	Open  	;
 178             	687             	858             	503.8       	315         	110         	0           	Open  	;
 208             	584             	1026            	39.5579     	315         	110         	0           	Open  	;
 212             	78              	81              	22.8643     	200         	110         	0           	Open  	;
 213             	79              	78              	66.0473     	315         	110         	0           	Open  	;
 214             	726             	763             	77.1909     	315         	110         	0           	Open  	;
 215             	539             	1068            	53.973      	315         	110         	0           	Open  	;
 219             	324             	300             	45.6501     	315         	110         	0           	Open  	;
 222             	472             	1095            	153.469     	315         	110         	0           	Open  	;
 225             	1113            	238             	74.6162     	315         	110         	0           	Open  	;
 226             	395             	1121            	28.7371     	315         	110         	0           	Open  	;
 227             	320             	1307            	0.000110279897	200         	110         	0           	Open  	;
 229             	308             	244             	57.854      	315         	110         	0           	Open  	;
 230             	G               	237             	64.4539     	315         	110         	0           	Open  	;
 231             	605             	196             	44.5912     	315         	110         	0           	Open  	;
 233             	4               	556             	58.1268     	315         	110         	0           	Open  	;
 237             	324             	1121            	123.267     	400         	110         	0           	Open  	;
 238             	405             	411             	28.3865     	315         	110         	0           	Open  	;
 239             	411             	247             	60.1714     	315         	110         	0           	Open  	;
 241             	500             	491             	107.574     	315         	110         	0           	Open  	;
 242             	421             	354             	57.6495     	315         	110         	0           	Open  	;
 243             	360             	345             	56.7526     	315         	110         	0           	Open  	;
 245             	1195            	1196            	5.21656     	400         	110         	0           	Open  	;
 246             	1196            	1445            	26.1399     	400         	110         	0           	Open  	;
 248             	172             	171             	173.435     	315         	110         	0           	Open  	;
 249             	172             	181             	485.261     	315         	110         	0           	Open  	;
 250             	170             	1464            	235.678     	315         	110         	0           	Open  	;
 251             	1464            	1471            	236.803     	315         	110         	0           	Open  	;
 252             	1472            	1480            	524.57      	315         	110         	0           	Open  	;
 253             	1480            	1481            	44.4307     	315         	110         	0           	Open  	;
 254             	1480            	1464            	53.6055     	315         	110         	0           	Open  	;
 259             	793             	B               	189.972     	250         	110         	0           	Open  	;
 260             	380             	1298            	20.4848     	315         	110         	0           	Open  	;
 P00259          	R00001          	1445            	10          	600         	110         	0           	Open  	;
 P00160          	T00002          	233             	0.001382946644	500         	110         	0           	Open  	;
 P00161          	1195            	J00145          	360         	400         	110         	0           	Open  	;
 P00162          	J00145          	J00147          	0.000106459904	400         	110         	0           	Open  	;
 P00164          	J00147          	467             	360.235149815984	400         	110         	0           	Open  	;
 P00163          	467             	437             	808         	315         	110         	0           	Open  	;

[PUMPS]
;ID              	Node1           	Node2           	Parameters

[VALVES]
;ID              	Node1           	Node2           	Diameter    	Type	Setting     	MinorLoss   

[TAGS]

[DEMANDS]
;Junction        	Demand      	Pattern         	Category

[STATUS]
;ID              	Status/Setting

[PATTERNS]
;ID              	Multipliers
;
 1               	1.08        	0.99        	0.83        	0.8         	0.75        	0.74        
 1               	0.8         	0.87        	1.03        	1.18        	1.18        	1.17        
 1               	1.09        	1.09        	1.06        	0.96        	0.94        	0.86        
 1               	0.99        	1.03        	1.13        	1.15        	1.16        	1.15        
;
 Pattern_1       	0           	-63.37440109	-221.068222 	-233.4115601	-262.1910706	-253.1732941
 Pattern_1       	-180.6589203	-96.5201416 	0           	0           	0           	0           
 Pattern_1       	0           	0           	0           	-76.46058655	-92.41362762	-167.4811249
 Pattern_1       	-11.17213154	0           	0           	0           	0           	0           

[CURVES]
;ID              	X-Value     	Y-Value
;PUMP: PUMP: 
 80KQL35-34-5.5  	0           	29.263      
 80KQL35-34-5.5  	2.324       	29.221      
 80KQL35-34-5.5  	4.648       	29.184      
 80KQL35-34-5.5  	6.972       	29.147      
 80KQL35-34-5.5  	9.296       	29.106      
 80KQL35-34-5.5  	11.621      	29.058      
 80KQL35-34-5.5  	13.945      	29          
 80KQL35-34-5.5  	16.269      	28.926      
 80KQL35-34-5.5  	18.593      	28.835      
 80KQL35-34-5.5  	20.917      	28.722      
 80KQL35-34-5.5  	23.241      	28.583      
 80KQL35-34-5.5  	25.565      	28.415      
 80KQL35-34-5.5  	27.889      	28.215      
 80KQL35-34-5.5  	30.214      	27.977      
 80KQL35-34-5.5  	32.538      	27.7        